175
  -OEChem-07022016433D

  7  6  0     0  0  0  0  0  0999 V2000
   -0.6906   -1.1195    0.0000 O   0  5  0  0  0  0  0  0  0  0  0  0
   -0.6023    1.1668    0.0000 O   0  0  0  0  0  0  0  0  0  0  0  0
    1.4054   -0.0498    0.0000 C   0  0  0  0  0  0  0  0  0  0  0  0
   -0.1125    0.0025    0.0001 C   0  0  0  0  0  0  0  0  0  0  0  0
    1.7934    0.4532   -0.8908 H   0  0  0  0  0  0  0  0  0  0  0  0
    1.7688   -1.0820    0.0004 H   0  0  0  0  0  0  0  0  0  0  0  0
    1.7937    0.4539    0.8902 H   0  0  0  0  0  0  0  0  0  0  0  0
  1  4  1  0  0  0  0
  2  4  2  0  0  0  0
  3  4  1  0  0  0  0
  3  5  1  0  0  0  0
  3  6  1  0  0  0  0
  3  7  1  0  0  0  0
M  CHG  1   1  -1
M  END
> <PUBCHEM_COMPOUND_CID>
175

> <PUBCHEM_CONFORMER_RMSD>
0.4

> <PUBCHEM_CONFORMER_DIVERSEORDER>
1

> <PUBCHEM_MMFF94_PARTIAL_CHARGES>
4
1 -0.9
2 -0.9
3 -0.11
4 0.91

> <PUBCHEM_EFFECTIVE_ROTOR_COUNT>
0

> <PUBCHEM_PHARMACOPHORE_FEATURES>
3
1 1 acceptor
1 2 acceptor
3 1 2 4 anion

> <PUBCHEM_HEAVY_ATOM_COUNT>
4

> <PUBCHEM_ATOM_DEF_STEREO_COUNT>
0

> <PUBCHEM_ATOM_UDEF_STEREO_COUNT>
0

> <PUBCHEM_BOND_DEF_STEREO_COUNT>
0

> <PUBCHEM_BOND_UDEF_STEREO_COUNT>
0

> <PUBCHEM_ISOTOPIC_ATOM_COUNT>
0

> <PUBCHEM_COMPONENT_COUNT>
1

> <PUBCHEM_CACTVS_TAUTO_COUNT>
1

> <PUBCHEM_CONFORMER_ID>
000000AF00000001

> <PUBCHEM_MMFF94_ENERGY>
1.0491

> <PUBCHEM_FEATURE_SELFOVERLAP>
15.277

> <PUBCHEM_SHAPE_FINGERPRINT>
139733 1 9222419305866417282
20096714 4 18050288068225412184
21015797 1 9727635016030451018
5943 1 11571732774193885094

> <PUBCHEM_SHAPE_MULTIPOLES>
70.58
1.31
1.11
0.56
0.57
0.01
0
-0.01
0
-0.37
0
0.04
0
0

> <PUBCHEM_SHAPE_SELFOVERLAP>
122.282

> <PUBCHEM_SHAPE_VOLUME>
47.5

> <PUBCHEM_COORDINATE_TYPE>
2
5
10

$$$$
